test/INPUT_FILES/9bus_gfm/line_data.csv
fbus;tbus;r;x;b;rateA;rateB;rateC;ratio;angle;status;angmin;angmax
1;4;0;0.0576;0;250;250;250;1;0;1;-60;60
2;7;0;0.0625;0;250;250;250;1;0;1;-60;60
3;9;0;0.0586;0;300;300;300;1;0;1;-60;60
4;5;0.01;0.085;0.176;250;250;250;1;0;1;-60;60
4;6;0.017;0.092;0.158;250;250;250;1;0;1;-60;60
5;7;0.032;0.161;0.306;250;250;250;1;0;1;-60;60
6;9;0.039;0.17;0.358;150;150;150;1;0;1;-60;60
7;8;0.0085;0.072;0.149;250;250;250;1;0;1;-60;60
8;9;0.0119;0.1008;0.209;150;150;150;1;0;1;-60;60